                                  MODFLOW-2005     
      U.S. GEOLOGICAL SURVEY MODULAR FINITE-DIFFERENCE GROUND-WATER FLOW MODEL
                            VERSION 1.12.00 2/3/2017

 LIST FILE: my_model.list
                         UNIT    2

 OPENING my_model.dis
 FILE TYPE:DIS   UNIT   11   STATUS:OLD    
 FORMAT:FORMATTED              ACCESS:SEQUENTIAL          

 OPENING my_model.bas
 FILE TYPE:BAS6   UNIT   13   STATUS:OLD    
 FORMAT:FORMATTED              ACCESS:SEQUENTIAL          

 OPENING my_model.lpf
 FILE TYPE:LPF   UNIT   15   STATUS:OLD    
 FORMAT:FORMATTED              ACCESS:SEQUENTIAL          

 OPENING my_model.rch
 FILE TYPE:RCH   UNIT   19   STATUS:OLD    
 FORMAT:FORMATTED              ACCESS:SEQUENTIAL          

 OPENING my_model.riv
 FILE TYPE:RIV   UNIT   18   STATUS:OLD    
 FORMAT:FORMATTED              ACCESS:SEQUENTIAL          

 OPENING my_model.wel
 FILE TYPE:WEL   UNIT   20   STATUS:OLD    
 FORMAT:FORMATTED              ACCESS:SEQUENTIAL          

 OPENING my_model.oc
 FILE TYPE:OC   UNIT   14   STATUS:OLD    
 FORMAT:FORMATTED              ACCESS:SEQUENTIAL          

 OPENING my_model.pcg
 FILE TYPE:PCG   UNIT   27   STATUS:OLD    
 FORMAT:FORMATTED              ACCESS:SEQUENTIAL          

 OPENING my_model.cbc
 FILE TYPE:DATA(BINARY)   UNIT    1   STATUS:REPLACE
 FORMAT:BINARY                 ACCESS:SEQUENTIAL          

 OPENING my_model.hds
 FILE TYPE:DATA(BINARY)   UNIT   51   STATUS:REPLACE
 FORMAT:BINARY                 ACCESS:SEQUENTIAL          

 BAS -- BASIC PACKAGE, VERSION 7, 5/2/2005 INPUT READ FROM UNIT   13
 
 MODFLOW was compiled using mixed precision
 Precision of REAL variables:           6
 Precision of DOUBLE PRECISION variables:          15

 DISCRETIZATION INPUT DATA READ FROM UNIT   11
 # DIS package for  MODFLOW-2005, generated by Flopy.
    1 LAYERS       172 ROWS       196 COLUMNS
    1 STRESS PERIOD(S) IN SIMULATION
 MODEL TIME UNIT IS DAYS
 MODEL LENGTH UNIT IS FEET
  Confining bed flag for each layer:
   0

                     DELR =   2500.00    

                     DELC =   2500.00    

 TOP ELEVATION OF LAYER 1 =   0.00000    

   MODEL LAYER BOTTOM EL. =  -50.0000     FOR LAYER   1


 STRESS PERIOD     LENGTH       TIME STEPS     MULTIPLIER FOR DELT    SS FLAG
 ----------------------------------------------------------------------------
        1         1.000000          1                    1.000         SS

 STEADY-STATE SIMULATION



 
 # BAS6 package for  MODFLOW-2005, generated by Flopy.                           
 THE FREE FORMAT OPTION HAS BEEN SELECTED



                     BOUNDARY ARRAY FOR LAYER   1
 READING ON UNIT   13 WITH FORMAT: (196I10)            

 AQUIFER HEAD WILL BE SET TO  -999.99     AT ALL NO-FLOW NODES (IBOUND=0).



                       INITIAL HEAD FOR LAYER   1
 READING ON UNIT   13 WITH FORMAT: (196E15.6)          
 # OC package for  MODFLOW-2005, generated by Flopy.

 OUTPUT CONTROL IS SPECIFIED ONLY AT TIME STEPS FOR WHICH OUTPUT IS DESIRED
 COMPACT CELL-BY-CELL BUDGET FILES WILL BE WRITTEN
 AUXILIARY DATA WILL BE SAVED IN CELL-BY-CELL BUDGET FILES
 HEAD PRINT FORMAT CODE IS   0    DRAWDOWN PRINT FORMAT CODE IS   0
 HEADS WILL BE SAVED ON UNIT   51    DRAWDOWNS WILL BE SAVED ON UNIT    0

 LPF -- LAYER-PROPERTY FLOW PACKAGE, VERSION 7, 5/2/2005
         INPUT READ FROM UNIT   15
 # LPF package for  MODFLOW-2005, generated by Flopy.
 CELL-BY-CELL FLOWS WILL BE SAVED ON UNIT    1
 HEAD AT CELLS THAT CONVERT TO DRY= -1.00000E+30
 No named parameters

   LAYER FLAGS:
 LAYER       LAYTYP        LAYAVG         CHANI        LAYVKA        LAYWET
 ---------------------------------------------------------------------------
    1             1             0     1.000E+00             0             0

   INTERPRETATION OF LAYER FLAGS:
                        INTERBLOCK     HORIZONTAL    DATA IN
         LAYER TYPE   TRANSMISSIVITY   ANISOTROPY   ARRAY VKA   WETTABILITY
 LAYER      (LAYTYP)      (LAYAVG)       (CHANI)      (LAYVKA)      (LAYWET)
 ---------------------------------------------------------------------------
    1   CONVERTIBLE      HARMONIC     1.000E+00    VERTICAL K  NON-WETTABLE

 WETTING CAPABILITY IS NOT ACTIVE IN ANY LAYER



              HYD. COND. ALONG ROWS FOR LAYER   1
 READING ON UNIT   15 WITH FORMAT: (196E15.6)          



                VERTICAL HYD. COND. FOR LAYER   1
 READING ON UNIT   15 WITH FORMAT: (196E15.6)          

 WEL -- WELL PACKAGE, VERSION 7, 5/2/2005 INPUT READ FROM UNIT   20
 # WEL package for  MODFLOW-2005, generated by Flopy.
 No named parameters
 MAXIMUM OF      1 ACTIVE WELLS AT ONE TIME


     0 Well parameters

 RIV -- RIVER PACKAGE, VERSION 7, 5/2/2005 INPUT READ FROM UNIT   18
 # RIV package for  MODFLOW-2005, generated by Flopy.
 No named parameters
 MAXIMUM OF   5202 ACTIVE RIVER REACHES AT ONE TIME


     0 River parameters

 RCH -- RECHARGE PACKAGE, VERSION 7, 5/2/2005 INPUT READ FROM UNIT   19
 # RCH package for  MODFLOW-2005, generated by Flopy.
 No named parameters
 OPTION 3 -- RECHARGE TO HIGHEST ACTIVE NODE IN EACH VERTICAL COLUMN


     0 Recharge parameters

 PCG -- CONJUGATE-GRADIENT SOLUTION PACKAGE, VERSION 7, 5/2/2005
 # PCG package for  MODFLOW-2005, generated by Flopy.
 MAXIMUM OF     50 CALLS OF SOLUTION ROUTINE
 MAXIMUM OF     30 INTERNAL ITERATIONS PER CALL TO SOLUTION ROUTINE
 MATRIX PRECONDITIONING TYPE :    1



                                    SOLUTION BY THE CONJUGATE-GRADIENT METHOD
                                   -------------------------------------------
                    MAXIMUM NUMBER OF CALLS TO PCG ROUTINE =       50
                        MAXIMUM ITERATIONS PER CALL TO PCG =       30
                               MATRIX PRECONDITIONING TYPE =        1
        RELAXATION FACTOR (ONLY USED WITH PRECOND. TYPE 1) =    0.10000E+01
 PARAMETER OF POLYNOMIAL PRECOND. = 2 (2) OR IS CALCULATED :        0
                         HEAD CHANGE CRITERION FOR CLOSURE =    0.10000E-04
                     RESIDUAL CHANGE CRITERION FOR CLOSURE =    0.10000E-04
            PCG HEAD AND RESIDUAL CHANGE PRINTOUT INTERVAL =      999
     PRINTING FROM SOLVER IS LIMITED(1) OR SUPPRESSED (>1) =        3
                            STEADY-STATE DAMPING PARAMETER =    0.10000E+01
                               TRANSIENT DAMPING PARAMETER =    0.10000E+01
1
                            STRESS PERIOD NO.    1, LENGTH =   1.000000    
                            -----------------------------------------------

                              NUMBER OF TIME STEPS =     1

                               MULTIPLIER FOR DELT =     1.000

                            INITIAL TIME STEP SIZE =   1.000000    

 WELL NO.  LAYER   ROW   COL   STRESS RATE         
 --------------------------------------------------
      1      1     11     21     -0.1330E+06

      1 WELL 

 REACH NO.  LAYER   ROW   COL     STAGE      CONDUCTANCE     BOTTOM EL.         
 -------------------------------------------------------------------------------
      1      1      1      1       734.3           5000.           731.3    
      2      1      1      2       732.4           5000.           729.4    
      3      1      1      4       730.0           5000.           727.0    
      4      1      1      5       728.9           5000.           725.9    
      5      1      1      6       728.5           5000.           725.5    
      6      1      1      7       727.2           5000.           724.2    
      7      1      1      8       727.2           5000.           724.2    
      8      1      1      9       725.5           5000.           722.5    
      9      1      1     10       724.4           5000.           721.4    
     10      1      1     11       722.5           5000.           719.5    
     11      1      1     12       721.5           5000.           718.5    
     12      1      1     45       708.5           5000.           705.5    
     13      1      1     78       633.8           5000.           630.8    
     14      1      1     96       671.2           5000.           668.2    
     15      1      1     97       660.8           5000.           657.8    
     16      1      1     98       640.8           5000.           637.8    
     17      1      1     99       625.2           5000.           622.2    
     18      1      1    100       609.8           5000.           606.8    
     19      1      1    101       599.6           5000.           596.6    
     20      1      1    102       608.9           5000.           605.9    
     21      1      1    107       582.0           5000.           579.0    
     22      1      1    120       630.4           5000.           627.4    
     23      1      1    139       707.6           5000.           704.6    
     24      1      1    151       733.3           5000.           730.3    
     25      1      1    152       733.7           5000.           730.7    
     26      1      1    153       733.8           5000.           730.8    
     27      1      1    180       755.7           5000.           752.7    
     28      1      1    181       755.7           5000.           752.7    
     29      1      1    195       653.1           5000.           650.1    
     30      1      2      1       734.3           5000.           731.3    
     31      1      2      2       734.3           5000.           731.3    
     32      1      2      6       728.5           5000.           725.5    
     33      1      2      8       727.2           5000.           724.2    
     34      1      2     12       720.8           5000.           717.8    
     35      1      2     13       720.6           5000.           717.6    
     36      1      2     44       710.7           5000.           707.7    
     37      1      2     45       710.7           5000.           707.7    
     38      1      2     78       641.3           5000.           638.3    
     39      1      2     79       645.0           5000.           642.0    
     40      1      2     94       680.5           5000.           677.5    
     41      1      2     95       676.9           5000.           673.9    
     42      1      2     96       675.5           5000.           672.5    
     43      1      2    101       589.7           5000.           586.7    
     44      1      2    107       582.2           5000.           579.2    
     45      1      2    120       625.0           5000.           622.0    
     46      1      2    138       707.6           5000.           704.6    
     47      1      2    139       707.6           5000.           704.6    
     48      1      2    150       730.8           5000.           727.8    
     49      1      2    151       724.9           5000.           721.9    
     50      1      2    180       755.7           5000.           752.7    
     51      1      2    181       755.7           5000.           752.7    
     52      1      2    195       650.8           5000.           647.8    
     53      1      3     13       719.5           5000.           716.5    
     54      1      3     14       718.8           5000.           715.8    
     55      1      3     43       716.7           5000.           713.7    
     56      1      3     44       716.7           5000.           713.7    
     57      1      3     78       645.1           5000.           642.1    
     58      1      3     79       645.0           5000.           642.0    
     59      1      3     92       699.8           5000.           696.8    
     60      1      3     94       687.2           5000.           684.2    
     61      1      3     95       679.5           5000.           676.5    
     62      1      3    101       585.7           5000.           582.7    
     63      1      3    107       582.0           5000.           579.0    
     64      1      3    118       617.6           5000.           614.6    
     65      1      3    119       617.6           5000.           614.6    
     66      1      3    120       626.0           5000.           623.0    
     67      1      3    138       707.0           5000.           704.0    
     68      1      3    150       723.6           5000.           720.6    
     69      1      3    151       723.6           5000.           720.6    
     70      1      3    180       722.1           5000.           719.1    
     71      1      3    181       755.7           5000.           752.7    
     72      1      3    193       696.6           5000.           693.6    
     73      1      3    195       650.8           5000.           647.8    
     74      1      4     14       717.3           5000.           714.3    
     75      1      4     17       714.6           5000.           711.6    
     76      1      4     18       715.5           5000.           712.5    
     77      1      4     78       648.5           5000.           645.5    
     78      1      4     92       699.3           5000.           696.3    
     79      1      4     93       694.9           5000.           691.9    
     80      1      4     94       692.4           5000.           689.4    
     81      1      4    101       585.7           5000.           582.7    
     82      1      4    102       585.7           5000.           582.7    
     83      1      4    103       585.7           5000.           582.7    
     84      1      4    106       581.6           5000.           578.6    
     85      1      4    107       582.0           5000.           579.0    
     86      1      4    117       615.8           5000.           612.8    
     87      1      4    118       615.8           5000.           612.8    
     88      1      4    138       705.1           5000.           702.1    
     89      1      4    139       701.0           5000.           698.0    
     90      1      4    150       717.7           5000.           714.7    
     91      1      4    151       718.0           5000.           715.0    
     92      1      4    179       714.1           5000.           711.1    
     93      1      4    180       714.0           5000.           711.0    
     94      1      4    193       688.0           5000.           685.0    
     95      1      4    194       681.5           5000.           678.5    
     96      1      4    195       650.8           5000.           647.8    
     97      1      4    196       650.8           5000.           647.8    
     98      1      5     14       717.3           5000.           714.3    
     99      1      5     15       715.1           5000.           712.1    
    100      1      5     16       714.2           5000.           711.2    
    101      1      5     17       712.9           5000.           709.9    
    102      1      5     18       712.6           5000.           709.6    
    103      1      5     76       652.6           5000.           649.6    
    104      1      5     77       652.1           5000.           649.1    
    105      1      5     78       651.2           5000.           648.2    
    106      1      5    103       585.5           5000.           582.5    
    107      1      5    104       585.1           5000.           582.1    
    108      1      5    105       581.5           5000.           578.5    
    109      1      5    106       581.6           5000.           578.6    
    110      1      5    117       610.9           5000.           607.9    
    111      1      5    139       697.2           5000.           694.2    
    112      1      5    140       697.2           5000.           694.2    
    113      1      5    150       717.4           5000.           714.4    
    114      1      5    180       701.5           5000.           698.5    
    115      1      5    181       693.3           5000.           690.3    
    116      1      5    182       687.6           5000.           684.6    
    117      1      5    194       668.8           5000.           665.8    
    118      1      5    195       650.8           5000.           647.8    
    119      1      5    196       650.8           5000.           647.8    
    120      1      6     17       711.8           5000.           708.8    
    121      1      6     18       710.4           5000.           707.4    
    122      1      6     19       709.2           5000.           706.2    
    123      1      6     20       707.3           5000.           704.3    
    124      1      6     21       706.3           5000.           703.3    
    125      1      6     76       655.9           5000.           652.9    
    126      1      6    104       583.3           5000.           580.3    
    127      1      6    105       581.5           5000.           578.5    
    128      1      6    106       581.6           5000.           578.6    
    129      1      6    116       607.2           5000.           604.2    
    130      1      6    117       609.2           5000.           606.2    
    131      1      6    139       694.2           5000.           691.2    
    132      1      6    140       694.3           5000.           691.3    
    133      1      6    143       696.5           5000.           693.5    
    134      1      6    150       717.4           5000.           714.4    
    135      1      6    163       766.5           5000.           763.5    
    136      1      6    180       695.8           5000.           692.8    
    137      1      6    181       694.4           5000.           691.4    
    138      1      6    182       687.6           5000.           684.6    
    139      1      6    183       677.9           5000.           674.9    
    140      1      6    192       653.0           5000.           650.0    
    141      1      6    193       650.8           5000.           647.8    
    142      1      6    194       650.8           5000.           647.8    
    143      1      6    195       650.8           5000.           647.8    
    144      1      7     17       714.2           5000.           711.2    
    145      1      7     18       714.2           5000.           711.2    
    146      1      7     20       707.8           5000.           704.8    
    147      1      7     21       705.4           5000.           702.4    
    148      1      7     57       727.1           5000.           724.1    
    149      1      7     58       728.9           5000.           725.9    
    150      1      7     73       663.9           5000.           660.9    
    151      1      7     74       662.0           5000.           659.0    
    152      1      7     75       658.5           5000.           655.5    
    153      1      7     76       658.5           5000.           655.5    
    154      1      7    106       582.2           5000.           579.2    
    155      1      7    116       607.2           5000.           604.2    
    156      1      7    128       761.2           5000.           758.2    
    157      1      7    129       753.4           5000.           750.4    
    158      1      7    138       688.8           5000.           685.8    
    159      1      7    139       689.8           5000.           686.8    
    160      1      7    142       694.1           5000.           691.1    
    161      1      7    143       695.5           5000.           692.5    
    162      1      7    150       717.4           5000.           714.4    
    163      1      7    163       760.4           5000.           757.4    
    164      1      7    172       789.6           5000.           786.6    
    165      1      7    173       796.9           5000.           793.9    
    166      1      7    183       677.9           5000.           674.9    
    167      1      7    190       650.8           5000.           647.8    
    168      1      7    191       652.8           5000.           649.8    
    169      1      7    192       650.8           5000.           647.8    
    170      1      7    193       650.8           5000.           647.8    
    171      1      8     16       718.1           5000.           715.1    
    172      1      8     17       718.1           5000.           715.1    
    173      1      8     21       705.4           5000.           702.4    
    174      1      8     22       705.4           5000.           702.4    
    175      1      8     23       704.8           5000.           701.8    
    176      1      8     52       756.3           5000.           753.3    
    177      1      8     53       749.9           5000.           746.9    
    178      1      8     54       744.5           5000.           741.5    
    179      1      8     55       740.0           5000.           737.0    
    180      1      8     56       735.4           5000.           732.4    
    181      1      8     57       731.7           5000.           728.7    
    182      1      8     58       722.6           5000.           719.6    
    183      1      8     59       717.6           5000.           714.6    
    184      1      8     60       715.6           5000.           712.6    
    185      1      8     61       711.8           5000.           708.8    
    186      1      8     62       705.8           5000.           702.8    
    187      1      8     63       705.5           5000.           702.5    
    188      1      8     64       701.2           5000.           698.2    
    189      1      8     65       698.5           5000.           695.5    
    190      1      8     66       695.6           5000.           692.6    
    191      1      8     67       687.6           5000.           684.6    
    192      1      8     68       685.4           5000.           682.4    
    193      1      8     69       679.0           5000.           676.0    
    194      1      8     70       674.0           5000.           671.0    
    195      1      8     71       668.5           5000.           665.5    
    196      1      8     72       667.3           5000.           664.3    
    197      1      8     73       667.3           5000.           664.3    
    198      1      8    106       582.1           5000.           579.1    
    199      1      8    115       600.8           5000.           597.8    
    200      1      8    116       601.3           5000.           598.3    
    201      1      8    128       731.6           5000.           728.6    
    202      1      8    137       686.4           5000.           683.4    
    203      1      8    138       679.7           5000.           676.7    
    204      1      8    140       688.2           5000.           685.2    
    205      1      8    141       686.6           5000.           683.6    
    206      1      8    142       690.1           5000.           687.1    
    207      1      8    148       706.9           5000.           703.9    
    208      1      8    149       712.1           5000.           709.1    
    209      1      8    150       717.4           5000.           714.4    
    210      1      8    163       756.4           5000.           753.4    
    211      1      8    170       774.8           5000.           771.8    
    212      1      8    171       774.8           5000.           771.8    
    213      1      8    172       783.6           5000.           780.6    
    214      1      8    182       668.0           5000.           665.0    
    215      1      8    183       670.5           5000.           667.5    
    216      1      8    189       650.8           5000.           647.8    
    217      1      8    190       650.8           5000.           647.8    
    218      1      9     13       737.6           5000.           734.6    
    219      1      9     14       733.1           5000.           730.1    
    220      1      9     15       729.0           5000.           726.0    
    221      1      9     16       726.9           5000.           723.9    
    222      1      9     23       702.7           5000.           699.7    
    223      1      9     24       700.5           5000.           697.5    
    224      1      9     34       699.7           5000.           696.7    
    225      1      9     66       694.0           5000.           691.0    
    226      1      9     67       689.5           5000.           686.5    
    227      1      9     68       682.3           5000.           679.3    
    228      1      9     69       682.3           5000.           679.3    
    229      1      9    101       599.0           5000.           596.0    
    230      1      9    102       587.9           5000.           584.9    
    231      1      9    103       581.5           5000.           578.5    
    232      1      9    106       582.0           5000.           579.0    
    233      1      9    115       600.2           5000.           597.2    
    234      1      9    128       720.6           5000.           717.6    
    235      1      9    138       678.9           5000.           675.9    
    236      1      9    140       682.9           5000.           679.9    
    237      1      9    141       686.8           5000.           683.8    
    238      1      9    148       706.8           5000.           703.8    
    239      1      9    149       712.1           5000.           709.1    
    240      1      9    162       746.6           5000.           743.6    
    241      1      9    163       756.2           5000.           753.2    
    242      1      9    170       766.4           5000.           763.4    
    243      1      9    171       766.4           5000.           763.4    
    244      1      9    181       668.0           5000.           665.0    
    245      1      9    182       668.0           5000.           665.0    
    246      1      9    189       650.8           5000.           647.8    
    247      1     10     12       744.3           5000.           741.3    
    248      1     10     13       737.4           5000.           734.4    
    249      1     10     14       735.0           5000.           732.0    
    250      1     10     15       729.5           5000.           726.5    
    251      1     10     23       700.2           5000.           697.2    
    252      1     10     24       700.2           5000.           697.2    
    253      1     10     34       697.2           5000.           694.2    
    254      1     10     80       651.7           5000.           648.7    
    255      1     10    103       581.5           5000.           578.5    
    256      1     10    104       581.9           5000.           578.9    
    257      1     10    106       582.0           5000.           579.0    
    258      1     10    115       600.2           5000.           597.2    
    259      1     10    128       712.7           5000.           709.7    
    260      1     10    137       675.6           5000.           672.6    
    261      1     10    138       675.6           5000.           672.6    
    262      1     10    139       677.7           5000.           674.7    
    263      1     10    140       679.0           5000.           676.0    
    264      1     10    148       706.6           5000.           703.6    
    265      1     10    151       704.8           5000.           701.8    
    266      1     10    156       726.7           5000.           723.7    
    267      1     10    162       736.6           5000.           733.6    
    268      1     10    171       755.1           5000.           752.1    
    269      1     10    172       751.9           5000.           748.9    
    270      1     10    181       668.0           5000.           665.0    
    271      1     10    182       667.8           5000.           664.8    
    272      1     10    189       650.6           5000.           647.6    
    273      1     11     11       750.1           5000.           747.1    
    274      1     11     12       744.5           5000.           741.5    
    275      1     11     23       697.8           5000.           694.8    
    276      1     11     34       694.7           5000.           691.7    
    277      1     11     80       651.5           5000.           648.5    
    278      1     11    104       581.8           5000.           578.8    
    279      1     11    105       581.8           5000.           578.8    
    280      1     11    106       581.8           5000.           578.8    
    281      1     11    114       592.9           5000.           589.9    
    282      1     11    115       592.2           5000.           589.2    
    283      1     11    128       703.3           5000.           700.3    
    284      1     11    137       669.7           5000.           666.7    
    285      1     11    138       670.8           5000.           667.8    
    286      1     11    139       673.9           5000.           670.9    
    287      1     11    140       679.4           5000.           676.4    
    288      1     11    147       705.3           5000.           702.3    
    289      1     11    148       702.2           5000.           699.2    
    290      1     11    149       702.0           5000.           699.0    
    291      1     11    151       692.5           5000.           689.5    
    292      1     11    156       715.0           5000.           712.0    
    293      1     11    162       735.7           5000.           732.7    
    294      1     11    172       739.8           5000.           736.8    
    295      1     11    181       657.1           5000.           654.1    
    296      1     11    182       657.2           5000.           654.2    
    297      1     11    189       650.6           5000.           647.6    
    298      1     12     10       754.7           5000.           751.7    
    299      1     12     11       751.5           5000.           748.5    
    300      1     12     22       696.4           5000.           693.4    
    301      1     12     23       697.8           5000.           694.8    
    302      1     12     33       691.2           5000.           688.2    
    303      1     12     34       692.5           5000.           689.5    
    304      1     12     80       650.8           5000.           647.8    
    305      1     12    105       581.7           5000.           578.7    
    306      1     12    106       581.8           5000.           578.8    
    307      1     12    113       588.1           5000.           585.1    
    308      1     12    114       590.6           5000.           587.6    
    309      1     12    126       692.4           5000.           689.4    
    310      1     12    128       695.4           5000.           692.4    
    311      1     12    137       668.8           5000.           665.8    
    312      1     12    138       668.8           5000.           665.8    
    313      1     12    148       705.0           5000.           702.0    
    314      1     12    149       694.2           5000.           691.2    
    315      1     12    150       684.5           5000.           681.5    
    316      1     12    151       684.5           5000.           681.5    
    317      1     12    152       684.5           5000.           681.5    
    318      1     12    155       691.9           5000.           688.9    
    319      1     12    156       715.0           5000.           712.0    
    320      1     12    159       705.3           5000.           702.3    
    321      1     12    160       707.2           5000.           704.2    
    322      1     12    162       731.6           5000.           728.6    
    323      1     12    163       737.3           5000.           734.3    
    324      1     12    164       746.5           5000.           743.5    
    325      1     12    165       756.4           5000.           753.4    
    326      1     12    172       724.6           5000.           721.6    
    327      1     12    181       659.5           5000.           656.5    
    328      1     12    182       655.3           5000.           652.3    
    329      1     12    189       650.6           5000.           647.6    
    330      1     13     10       756.9           5000.           753.9    
    331      1     13     22       695.0           5000.           692.0    
    332      1     13     23       693.9           5000.           690.9    
    333      1     13     24       693.9           5000.           690.9    
    334      1     13     30       690.9           5000.           687.9    
    335      1     13     33       689.2           5000.           686.2    
    336      1     13     34       689.2           5000.           686.2    
    337      1     13     80       650.0           5000.           647.0    
    338      1     13     81       645.9           5000.           642.9    
    339      1     13    105       581.6           5000.           578.6    
    340      1     13    112       589.1           5000.           586.1    
    341      1     13    113       589.9           5000.           586.9    
    342      1     13    126       690.2           5000.           687.2    
    343      1     13    127       687.2           5000.           684.2    
    344      1     13    128       692.3           5000.           689.3    
    345      1     13    136       668.8           5000.           665.8    
    346      1     13    137       668.8           5000.           665.8    
    347      1     13    152       684.5           5000.           681.5    
    348      1     13    153       684.4           5000.           681.4    
    349      1     13    154       675.8           5000.           672.8    
    350      1     13    155       675.8           5000.           672.8    
    351      1     13    156       675.8           5000.           672.8    
    352      1     13    158       698.0           5000.           695.0    
    353      1     13    159       697.1           5000.           694.1    
    354      1     13    160       707.2           5000.           704.2    
    355      1     13    161       716.1           5000.           713.1    
    356      1     13    162       727.7           5000.           724.7    
    357      1     13    172       707.7           5000.           704.7    
    358      1     13    182       648.1           5000.           645.1    
    359      1     13    188       653.1           5000.           650.1    
    360      1     13    189       650.6           5000.           647.6    
    361      1     14      9       763.9           5000.           760.9    
    362      1     14     10       762.3           5000.           759.3    
    363      1     14     22       694.3           5000.           691.3    
    364      1     14     23       693.9           5000.           690.9    
    365      1     14     24       693.9           5000.           690.9    
    366      1     14     25       693.8           5000.           690.8    
    367      1     14     26       693.8           5000.           690.8    
    368      1     14     27       690.7           5000.           687.7    
    369      1     14     28       690.7           5000.           687.7    
    370      1     14     29       688.7           5000.           685.7    
    371      1     14     30       689.5           5000.           686.5    
    372      1     14     34       685.1           5000.           682.1    
    373      1     14     57       697.2           5000.           694.2    
    374      1     14     81       642.6           5000.           639.6    
    375      1     14     82       642.2           5000.           639.2    
    376      1     14    105       581.5           5000.           578.5    
    377      1     14    111       587.1           5000.           584.1    
    378      1     14    112       587.1           5000.           584.1    
    379      1     14    126       677.8           5000.           674.8    
    380      1     14    127       677.7           5000.           674.7    
    381      1     14    135       667.0           5000.           664.0    
    382      1     14    136       669.2           5000.           666.2    
    383      1     14    153       684.4           5000.           681.4    
    384      1     14    156       675.8           5000.           672.8    
    385      1     14    157       675.8           5000.           672.8    
    386      1     14    158       683.1           5000.           680.1    
    387      1     14    161       727.1           5000.           724.1    
    388      1     14    162       727.1           5000.           724.1    
    389      1     14    172       705.4           5000.           702.4    
    390      1     14    173       699.5           5000.           696.5    
    391      1     14    182       645.7           5000.           642.7    
    392      1     14    188       650.6           5000.           647.6    
    393      1     14    189       658.2           5000.           655.2    
    394      1     14    190       663.8           5000.           660.8    
    395      1     15     25       694.5           5000.           691.5    
    396      1     15     27       690.7           5000.           687.7    
    397      1     15     28       687.7           5000.           684.7    
    398      1     15     29       685.2           5000.           682.2    
    399      1     15     30       685.2           5000.           682.2    
    400      1     15     34       684.5           5000.           681.5    
    401      1     15     57       691.1           5000.           688.1    
    402      1     15     82       642.2           5000.           639.2    
    403      1     15    105       581.4           5000.           578.4    
    404      1     15    111       584.1           5000.           581.1    
    405      1     15    126       686.0           5000.           683.0    
    406      1     15    127       672.9           5000.           669.9    
    407      1     15    135       662.4           5000.           659.4    
    408      1     15    156       674.6           5000.           671.6    
    409      1     15    168       742.6           5000.           739.6    
    410      1     15    173       688.7           5000.           685.7    
    411      1     15    174       686.7           5000.           683.7    
    412      1     15    182       644.0           5000.           641.0    
    413      1     15    187       650.6           5000.           647.6    
    414      1     15    188       650.6           5000.           647.6    
    415      1     15    190       667.2           5000.           664.2    
    416      1     15    191       671.8           5000.           668.8    
    417      1     16     24       701.9           5000.           698.9    
    418      1     16     25       702.8           5000.           699.8    
    419      1     16     29       685.2           5000.           682.2    
    420      1     16     30       684.2           5000.           681.2    
    421      1     16     31       682.1           5000.           679.1    
    422      1     16     34       683.0           5000.           680.0    
    423      1     16     57       687.3           5000.           684.3    
    424      1     16     82       640.6           5000.           637.6    
    425      1     16    101       600.5           5000.           597.5    
    426      1     16    102       584.5           5000.           581.5    
    427      1     16    103       581.3           5000.           578.3    
    428      1     16    104       581.3           5000.           578.3    
    429      1     16    105       581.3           5000.           578.3    
    430      1     16    110       583.5           5000.           580.5    
    431      1     16    111       584.1           5000.           581.1    
    432      1     16    119       630.6           5000.           627.6    
    433      1     16    120       634.6           5000.           631.6    
    434      1     16    127       667.8           5000.           664.8    
    435      1     16    135       659.2           5000.           656.2    
    436      1     16    136       657.1           5000.           654.1    
    437      1     16    155       664.6           5000.           661.6    
    438      1     16    156       664.6           5000.           661.6    
    439      1     16    168       731.8           5000.           728.8    
    440      1     16    169       735.1           5000.           732.1    
    441      1     16    174       677.2           5000.           674.2    
    442      1     16    175       670.5           5000.           667.5    
    443      1     16    179       640.8           5000.           637.8    
    444      1     16    180       640.8           5000.           637.8    
    445      1     16    181       640.8           5000.           637.8    
    446      1     16    182       640.8           5000.           637.8    
    447      1     16    183       640.8           5000.           637.8    
    448      1     16    184       640.8           5000.           637.8    
    449      1     16    185       640.8           5000.           637.8    
    450      1     16    187       650.6           5000.           647.6    
    451      1     16    188       656.3           5000.           653.3    
    452      1     16    191       687.3           5000.           684.3    
    453      1     16    192       687.3           5000.           684.3    
    454      1     16    193       691.7           5000.           688.7    
    455      1     17     30       681.0           5000.           678.0    
    456      1     17     31       681.0           5000.           678.0    
    457      1     17     34       680.5           5000.           677.5    
    458      1     17     40       684.0           5000.           681.0    
    459      1     17     41       685.2           5000.           682.2    
    460      1     17     42       689.1           5000.           686.1    
    461      1     17     57       680.9           5000.           677.9    
    462      1     17     82       637.7           5000.           634.7    
    463      1     17    101       601.1           5000.           598.1    
    464      1     17    102       598.0           5000.           595.0    
    465      1     17    105       574.7           5000.           571.7    
    466      1     17    106       579.5           5000.           576.5    
    467      1     17    107       579.5           5000.           576.5    
    468      1     17    108       579.5           5000.           576.5    
    469      1     17    109       579.5           5000.           576.5    
    470      1     17    110       582.6           5000.           579.6    
    471      1     17    111       588.7           5000.           585.7    
    472      1     17    112       592.7           5000.           589.7    
    473      1     17    113       594.4           5000.           591.4    
    474      1     17    114       599.6           5000.           596.6    
    475      1     17    115       600.8           5000.           597.8    
    476      1     17    116       605.0           5000.           602.0    
    477      1     17    117       615.6           5000.           612.6    
    478      1     17    118       620.3           5000.           617.3    
    479      1     17    119       628.7           5000.           625.7    
    480      1     17    127       665.6           5000.           662.6    
    481      1     17    128       662.3           5000.           659.3    
    482      1     17    129       661.6           5000.           658.6    
    483      1     17    136       656.7           5000.           653.7    
    484      1     17    153       677.5           5000.           674.5    
    485      1     17    155       657.9           5000.           654.9    
    486      1     17    168       724.8           5000.           721.8    
    487      1     17    169       724.0           5000.           721.0    
    488      1     17    175       667.8           5000.           664.8    
    489      1     17    176       660.0           5000.           657.0    
    490      1     17    177       657.7           5000.           654.7    
    491      1     17    178       640.8           5000.           637.8    
    492      1     17    179       640.8           5000.           637.8    
    493      1     17    185       640.8           5000.           637.8    
    494      1     17    187       650.6           5000.           647.6    
    495      1     17    188       656.3           5000.           653.3    
    496      1     17    193       692.0           5000.           689.0    
    497      1     17    194       704.3           5000.           701.3    
    498      1     18     30       681.0           5000.           678.0    
    499      1     18     31       679.1           5000.           676.1    
    500      1     18     32       679.1           5000.           676.1    
    501      1     18     34       680.0           5000.           677.0    
    502      1     18     38       681.3           5000.           678.3    
    503      1     18     39       678.2           5000.           675.2    
    504      1     18     40       682.4           5000.           679.4    
    505      1     18     56       681.6           5000.           678.6    
    506      1     18     57       676.4           5000.           673.4    
    507      1     18     58       675.1           5000.           672.1    
    508      1     18     82       636.2           5000.           633.2    
    509      1     18    105       574.7           5000.           571.7    
    510      1     18    106       578.8           5000.           575.8    
    511      1     18    129       655.6           5000.           652.6    
    512      1     18    136       654.5           5000.           651.5    
    513      1     18    139       686.6           5000.           683.6    
    514      1     18    152       684.2           5000.           681.2    
    515      1     18    153       667.3           5000.           664.3    
    516      1     18    154       662.9           5000.           659.9    
    517      1     18    155       657.9           5000.           654.9    
    518      1     18    168       717.3           5000.           714.3    
    519      1     18    169       723.6           5000.           720.6    
    520      1     18    177       650.9           5000.           647.9    
    521      1     18    178       640.8           5000.           637.8    
    522      1     18    184       640.8           5000.           637.8    
    523      1     18    185       640.8           5000.           637.8    
    524      1     18    186       650.6           5000.           647.6    
    525      1     18    187       658.8           5000.           655.8    
    526      1     18    189       663.0           5000.           660.0    
    527      1     19     31       679.1           5000.           676.1    
    528      1     19     32       679.1           5000.           676.1    
    529      1     19     34       679.1           5000.           676.1    
    530      1     19     37       675.2           5000.           672.2    
    531      1     19     38       677.5           5000.           674.5    
    532      1     19     53       694.5           5000.           691.5    
    533      1     19     54       691.3           5000.           688.3    
    534      1     19     55       685.6           5000.           682.6    
    535      1     19     56       683.7           5000.           680.7    
    536      1     19     58       670.3           5000.           667.3    
    537      1     19     82       632.0           5000.           629.0    
    538      1     19    104       574.7           5000.           571.7    
    539      1     19    105       574.7           5000.           571.7    
    540      1     19    106       578.8           5000.           575.8    
    541      1     19    129       651.0           5000.           648.0    
    542      1     19    130       650.1           5000.           647.1    
    543      1     19    135       651.0           5000.           648.0    
    544      1     19    136       651.0           5000.           648.0    
    545      1     19    137       671.1           5000.           668.1    
    546      1     19    138       667.5           5000.           664.5    
    547      1     19    139       685.4           5000.           682.4    
    548      1     19    154       657.9           5000.           654.9    
    549      1     19    155       657.9           5000.           654.9    
    550      1     19    168       717.1           5000.           714.1    
    551      1     19    178       640.8           5000.           637.8    
    552      1     19    179       640.8           5000.           637.8    
    553      1     19    184       640.8           5000.           637.8    
    554      1     19    185       640.9           5000.           637.9    
    555      1     19    186       650.4           5000.           647.4    
    556      1     19    187       657.0           5000.           654.0    
    557      1     19    188       657.0           5000.           654.0    
    558      1     19    189       660.2           5000.           657.2    
    559      1     19    190       664.4           5000.           661.4    
    560      1     19    191       670.0           5000.           667.0    
    561      1     20     32       679.1           5000.           676.1    
    562      1     20     33       679.1           5000.           676.1    
    563      1     20     34       675.8           5000.           672.8    
    564      1     20     37       675.2           5000.           672.2    
    565      1     20     53       696.6           5000.           693.6    
    566      1     20     58       667.8           5000.           664.8    
    567      1     20     59       666.3           5000.           663.3    
    568      1     20     74       656.0           5000.           653.0    
    569      1     20     75       655.4           5000.           652.4    
    570      1     20     82       630.9           5000.           627.9    
    571      1     20    104       574.7           5000.           571.7    
    572      1     20    129       639.1           5000.           636.1    
    573      1     20    130       646.6           5000.           643.6    
    574      1     20    134       651.0           5000.           648.0    
    575      1     20    135       651.0           5000.           648.0    
    576      1     20    136       651.0           5000.           648.0    
    577      1     20    137       651.0           5000.           648.0    
    578      1     20    154       657.9           5000.           654.9    
    579      1     20    168       713.3           5000.           710.3    
    580      1     20    179       641.1           5000.           638.1    
    581      1     20    180       640.5           5000.           637.5    
    582      1     20    181       640.7           5000.           637.7    
    583      1     20    191       670.4           5000.           667.4    
    584      1     21     34       675.8           5000.           672.8    
    585      1     21     35       673.4           5000.           670.4    
    586      1     21     36       673.9           5000.           670.9    
    587      1     21     37       674.5           5000.           671.5    
    588      1     21     59       663.6           5000.           660.6    
    589      1     21     74       649.1           5000.           646.1    
    590      1     21     75       653.8           5000.           650.8    
    591      1     21     82       626.1           5000.           623.1    
    592      1     21    104       574.7           5000.           571.7    
    593      1     21    130       638.2           5000.           635.2    
    594      1     21    134       651.0           5000.           648.0    
    595      1     21    135       648.1           5000.           645.1    
    596      1     21    154       657.9           5000.           654.9    
    597      1     21    167       706.6           5000.           703.6    
    598      1     21    168       710.3           5000.           707.3    
    599      1     21    181       638.6           5000.           635.6    
    600      1     21    191       676.2           5000.           673.2    
    601      1     22     19       714.2           5000.           711.2    
    602      1     22     20       710.8           5000.           707.8    
    603      1     22     21       710.4           5000.           707.4    
    604      1     22     35       671.3           5000.           668.3    
    605      1     22     36       673.6           5000.           670.6    
    606      1     22     59       660.2           5000.           657.2    
    607      1     22     74       638.5           5000.           635.5    
    608      1     22     81       624.9           5000.           621.9    
    609      1     22     82       626.1           5000.           623.1    
    610      1     22    103       574.7           5000.           571.7    
    611      1     22    104       574.7           5000.           571.7    
    612      1     22    130       638.0           5000.           635.0    
    613      1     22    131       638.5           5000.           635.5    
    614      1     22    132       640.2           5000.           637.2    
    615      1     22    133       645.9           5000.           642.9    
    616      1     22    134       648.0           5000.           645.0    
    617      1     22    135       648.1           5000.           645.1    
    618      1     22    154       657.9           5000.           654.9    
    619      1     22    155       657.9           5000.           654.9    
    620      1     22    166       699.7           5000.           696.7    
    621      1     22    167       702.4           5000.           699.4    
    622      1     22    181       638.6           5000.           635.6    
    623      1     22    191       684.2           5000.           681.2    
    624      1     23     21       703.0           5000.           700.0    
    625      1     23     22       702.8           5000.           699.8    
    626      1     23     23       701.5           5000.           698.5    
    627      1     23     34       669.0           5000.           666.0    
    628      1     23     35       668.4           5000.           665.4    
    629      1     23     36       670.9           5000.           667.9    
    630      1     23     59       655.3           5000.           652.3    
    631      1     23     60       655.3           5000.           652.3    
    632      1     23     74       638.5           5000.           635.5    
    633      1     23     75       634.2           5000.           631.2    
    634      1     23     81       623.0           5000.           620.0    
    635      1     23     95       609.8           5000.           606.8    
    636      1     23    103       574.7           5000.           571.7    
    637      1     23    129       637.3           5000.           634.3    
    638      1     23    130       637.4           5000.           634.4    
    639      1     23    131       637.9           5000.           634.9    
    640      1     23    132       642.0           5000.           639.0    
    641      1     23    133       644.8           5000.           641.8    
    642      1     23    134       647.8           5000.           644.8    
    643      1     23    146       683.5           5000.           680.5    
    644      1     23    154       657.9           5000.           654.9    
    645      1     23    155       654.5           5000.           651.5    
    646      1     23    161       678.4           5000.           675.4    
    647      1     23    162       677.6           5000.           674.6    
    648      1     23    163       681.6           5000.           678.6    
    649      1     23    166       697.3           5000.           694.3    
    650      1     23    181       638.6           5000.           635.6    
    651      1     23    191       684.2           5000.           681.2    
    652      1     23    192       685.6           5000.           682.6    
    653      1     23    193       687.1           5000.           684.1    
    654      1     24     23       693.4           5000.           690.4    
    655      1     24     24       692.4           5000.           689.4    
    656      1     24     25       689.4           5000.           686.4    
    657      1     24     35       666.6           5000.           663.6    
    658      1     24     36       668.0           5000.           665.0    
    659      1     24     37       668.0           5000.           665.0    
    660      1     24     59       652.5           5000.           649.5    
    661      1     24     60       654.2           5000.           651.2    
    662      1     24     67       658.7           5000.           655.7    
    663      1     24     75       629.7           5000.           626.7    
    664      1     24     81       618.6           5000.           615.6    
    665      1     24     95       606.3           5000.           603.3    
    666      1     24     96       603.0           5000.           600.0    
    667      1     24    103       574.7           5000.           571.7    
    668      1     24    107       586.5           5000.           583.5    
    669      1     24    108       586.5           5000.           583.5    
    670      1     24    109       586.5           5000.           583.5    
    671      1     24    110       586.5           5000.           583.5    
    672      1     24    129       636.6           5000.           633.6    
    673      1     24    130       638.2           5000.           635.2    
    674      1     24    146       677.9           5000.           674.9    
    675      1     24    155       648.1           5000.           645.1    
    676      1     24    160       668.7           5000.           665.7    
    677      1     24    161       677.3           5000.           674.3    
    678      1     24    162       677.6           5000.           674.6    
    679      1     24    163       681.8           5000.           678.8    
    680      1     24    164       685.9           5000.           682.9    
    681      1     24    165       687.2           5000.           684.2    
    682      1     24    166       696.4           5000.           693.4    
    683      1     24    179       638.6           5000.           635.6    
    684      1     24    180       638.6           5000.           635.6    
    685      1     24    181       638.6           5000.           635.6    
    686      1     24    193       687.0           5000.           684.0    
    687      1     24    194       704.1           5000.           701.1    
    688      1     25     25       686.2           5000.           683.2    
    689      1     25     26       683.1           5000.           680.1    
    690      1     25     27       683.5           5000.           680.5    
    691      1     25     34       665.5           5000.           662.5    
    692      1     25     35       665.5           5000.           662.5    
    693      1     25     36       664.0           5000.           661.0    
    694      1     25     37       666.2           5000.           663.2    
    695      1     25     59       650.8           5000.           647.8    
    696      1     25     60       645.5           5000.           642.5    
    697      1     25     67       653.6           5000.           650.6    
    698      1     25     68       652.7           5000.           649.7    
    699      1     25     75       627.5           5000.           624.5    
    700      1     25     80       614.4           5000.           611.4    
    701      1     25     81       616.5           5000.           613.5    
    702      1     25     96       599.4           5000.           596.4    
    703      1     25     97       599.4           5000.           596.4    
    704      1     25    102       574.7           5000.           571.7    
    705      1     25    103       574.7           5000.           571.7    
    706      1     25    106       586.5           5000.           583.5    
    707      1     25    107       586.5           5000.           583.5    
    708      1     25    127       631.3           5000.           628.3    
    709      1     25    128       633.5           5000.           630.5    
    710      1     25    129       636.6           5000.           633.6    
    711      1     25    146       667.2           5000.           664.2    
    712      1     25    155       647.0           5000.           644.0    
    713      1     25    159       668.0           5000.           665.0    
    714      1     25    160       668.0           5000.           665.0    
    715      1     25    178       636.3           5000.           633.3    
    716      1     25    179       638.6           5000.           635.6    
    717      1     25    193       700.7           5000.           697.7    
    718      1     25    194       707.6           5000.           704.6    
    719      1     25    195       722.2           5000.           719.2    
    720      1     26     27       680.3           5000.           677.3    
    721      1     26     28       678.1           5000.           675.1    
    722      1     26     34       663.4           5000.           660.4    
    723      1     26     35       664.0           5000.           661.0    
    724      1     26     36       663.4           5000.           660.4    
    725      1     26     60       645.5           5000.           642.5    
    726      1     26     61       642.2           5000.           639.2    
    727      1     26     67       653.6           5000.           650.6    
    728      1     26     68       648.1           5000.           645.1    
    729      1     26     75       623.2           5000.           620.2    
    730      1     26     79       612.2           5000.           609.2    
    731      1     26     80       612.2           5000.           609.2    
    732      1     26     96       594.3           5000.           591.3    
    733      1     26     97       588.4           5000.           585.4    
    734      1     26    102       574.7           5000.           571.7    
    735      1     26    105       586.5           5000.           583.5    
    736      1     26    106       586.5           5000.           583.5    
    737      1     26    126       628.9           5000.           625.9    
    738      1     26    127       630.2           5000.           627.2    
    739      1     26    146       664.5           5000.           661.5    
    740      1     26    152       654.7           5000.           651.7    
    741      1     26    154       643.2           5000.           640.2    
    742      1     26    155       644.1           5000.           641.1    
    743      1     26    156       656.7           5000.           653.7    
    744      1     26    157       657.9           5000.           654.9    
    745      1     26    158       658.0           5000.           655.0    
    746      1     26    159       667.5           5000.           664.5    
    747      1     26    175       636.1           5000.           633.1    
    748      1     26    176       636.1           5000.           633.1    
    749      1     26    177       636.3           5000.           633.3    
    750      1     26    178       636.3           5000.           633.3    
    751      1     26    195       733.1           5000.           730.1    
    752      1     26    196       733.1           5000.           730.1    
    753      1     27     28       673.4           5000.           670.4    
    754      1     27     29       670.9           5000.           667.9    
    755      1     27     30       665.4           5000.           662.4    
    756      1     27     31       665.1           5000.           662.1    
    757      1     27     32       668.2           5000.           665.2    
    758      1     27     34       662.1           5000.           659.1    
    759      1     27     35       660.7           5000.           657.7    
    760      1     27     36       661.8           5000.           658.8    
    761      1     27     61       639.2           5000.           636.2    
    762      1     27     68       641.8           5000.           638.8    
    763      1     27     75       623.2           5000.           620.2    
    764      1     27     76       617.0           5000.           614.0    
    765      1     27     79       611.1           5000.           608.1    
    766      1     27     91       612.8           5000.           609.8    
    767      1     27     92       605.2           5000.           602.2    
    768      1     27     93       601.4           5000.           598.4    
    769      1     27     94       596.9           5000.           593.9    
    770      1     27     96       586.7           5000.           583.7    
    771      1     27     97       587.1           5000.           584.1    
    772      1     27    102       574.7           5000.           571.7    
    773      1     27    104       577.5           5000.           574.5    
    774      1     27    105       586.5           5000.           583.5    
    775      1     27    126       622.5           5000.           619.5    
    776      1     27    127       625.2           5000.           622.2    
    777      1     27    146       658.1           5000.           655.1    
    778      1     27    152       643.4           5000.           640.4    
    779      1     27    153       640.9           5000.           637.9    
    780      1     27    154       643.2           5000.           640.2    
    781      1     27    157       658.0           5000.           655.0    
    782      1     27    158       658.0           5000.           655.0    
    783      1     27    170       657.9           5000.           654.9    
    784      1     27    171       655.5           5000.           652.5    
    785      1     27    174       633.7           5000.           630.7    
    786      1     27    175       633.7           5000.           630.7    
    787      1     28     32       661.1           5000.           658.1    
    788      1     28     33       659.4           5000.           656.4    
    789      1     28     35       660.0           5000.           657.0    
    790      1     28     61       634.2           5000.           631.2    
    791      1     28     68       639.3           5000.           636.3    
    792      1     28     76       613.1           5000.           610.1    
    793      1     28     77       610.3           5000.           607.3    
    794      1     28     78       606.2           5000.           603.2    
    795      1     28     79       611.1           5000.           608.1    
    796      1     28     94       593.4           5000.           590.4    
    797      1     28     95       586.5           5000.           583.5    
    798      1     28     96       577.7           5000.           574.7    
    799      1     28    100       574.7           5000.           571.7    
    800      1     28    101       574.7           5000.           571.7    
    801      1     28    102       574.7           5000.           571.7    
    802      1     28    104       576.3           5000.           573.3    
    803      1     28    126       619.1           5000.           616.1    
    804      1     28    132       664.2           5000.           661.2    
    805      1     28    133       671.0           5000.           668.0    
    806      1     28    134       677.3           5000.           674.3    
    807      1     28    146       657.7           5000.           654.7    
    808      1     28    147       655.7           5000.           652.7    
    809      1     28    152       638.0           5000.           635.0    
    810      1     28    153       637.9           5000.           634.9    
    811      1     28    170       633.7           5000.           630.7    
    812      1     28    171       633.7           5000.           630.7    
    813      1     28    173       633.7           5000.           630.7    
    814      1     28    174       633.7           5000.           630.7    
    815      1     29     33       661.0           5000.           658.0    
    816      1     29     34       657.5           5000.           654.5    
    817      1     29     35       658.2           5000.           655.2    
    818      1     29     60       628.0           5000.           625.0    
    819      1     29     61       631.7           5000.           628.7    
    820      1     29     68       638.5           5000.           635.5    
    821      1     29     69       635.2           5000.           632.2    
    822      1     29     78       605.2           5000.           602.2    
    823      1     29     96       576.7           5000.           573.7    
    824      1     29     99       574.7           5000.           571.7    
    825      1     29    100       574.7           5000.           571.7    
    826      1     29    102       576.9           5000.           573.9    
    827      1     29    104       576.3           5000.           573.3    
    828      1     29    124       618.9           5000.           615.9    
    829      1     29    125       618.9           5000.           615.9    
    830      1     29    126       618.9           5000.           615.9    
    831      1     29    131       654.0           5000.           651.0    
    832      1     29    132       658.7           5000.           655.7    
    833      1     29    147       648.1           5000.           645.1    
    834      1     29    153       636.3           5000.           633.3    
    835      1     29    168       633.7           5000.           630.7    
    836      1     29    169       633.7           5000.           630.7    
    837      1     29    170       633.7           5000.           630.7    
    838      1     29    171       633.7           5000.           630.7    
    839      1     29    172       633.7           5000.           630.7    
    840      1     29    173       633.7           5000.           630.7    
    841      1     30      3       751.9           5000.           748.9    
    842      1     30     34       655.9           5000.           652.9    
    843      1     30     35       658.2           5000.           655.2    
    844      1     30     60       623.8           5000.           620.8    
    845      1     30     67       624.1           5000.           621.1    
    846      1     30     68       625.7           5000.           622.7    
    847      1     30     69       634.2           5000.           631.2    
    848      1     30     78       601.6           5000.           598.6    
    849      1     30     96       575.4           5000.           572.4    
    850      1     30     97       574.7           5000.           571.7    
    851      1     30     98       574.7           5000.           571.7    
    852      1     30     99       574.7           5000.           571.7    
    853      1     30    102       576.8           5000.           573.8    
    854      1     30    103       576.3           5000.           573.3    
    855      1     30    104       576.3           5000.           573.3    
    856      1     30    123       619.0           5000.           616.0    
    857      1     30    124       618.9           5000.           615.9    
    858      1     30    130       653.2           5000.           650.2    
    859      1     30    131       652.6           5000.           649.6    
    860      1     30    147       642.6           5000.           639.6    
    861      1     30    148       646.4           5000.           643.4    
    862      1     30    152       632.2           5000.           629.2    
    863      1     30    153       635.1           5000.           632.1    
    864      1     30    165       631.4           5000.           628.4    
    865      1     30    166       631.4           5000.           628.4    
    866      1     30    167       631.4           5000.           628.4    
    867      1     30    168       633.7           5000.           630.7    
    868      1     31      3       747.9           5000.           744.9    
    869      1     31     34       654.9           5000.           651.9    
    870      1     31     35       654.9           5000.           651.9    
    871      1     31     60       623.8           5000.           620.8    
    872      1     31     61       622.0           5000.           619.0    
    873      1     31     66       616.3           5000.           613.3    
    874      1     31     67       624.1           5000.           621.1    
    875      1     31     77       601.6           5000.           598.6    
    876      1     31     78       601.6           5000.           598.6    
    877      1     31     97       574.7           5000.           571.7    
    878      1     31    101       574.7           5000.           571.7    
    879      1     31    102       576.5           5000.           573.5    
    880      1     31    103       575.4           5000.           572.4    
    881      1     31    123       618.2           5000.           615.2    
    882      1     31    124       616.6           5000.           613.6    
    883      1     31    125       615.7           5000.           612.7    
    884      1     31    127       630.8           5000.           627.8    
    885      1     31    128       628.8           5000.           625.8    
    886      1     31    129       633.4           5000.           630.4    
    887      1     31    130       640.0           5000.           637.0    
    888      1     31    147       618.6           5000.           615.6    
    889      1     31    148       618.8           5000.           615.8    
    890      1     31    149       628.5           5000.           625.5    
    891      1     31    150       628.8           5000.           625.8    
    892      1     31    151       629.5           5000.           626.5    
    893      1     31    152       631.9           5000.           628.9    
    894      1     31    163       631.4           5000.           628.4    
    895      1     31    164       631.4           5000.           628.4    
    896      1     31    165       631.4           5000.           628.4    
    897      1     31    174       686.4           5000.           683.4    
    898      1     31    175       687.3           5000.           684.3    
    899      1     31    181       718.2           5000.           715.2    
    900      1     31    182       724.8           5000.           721.8    
    901      1     31    183       727.0           5000.           724.0    
    902      1     31    184       735.7           5000.           732.7    
    903      1     31    185       743.0           5000.           740.0    
    904      1     31    186       750.7           5000.           747.7    
    905      1     32      3       745.8           5000.           742.8    
    906      1     32      4       745.8           5000.           742.8    
    907      1     32     34       653.5           5000.           650.5    
    908      1     32     35       652.7           5000.           649.7    
    909      1     32     51       640.8           5000.           637.8    
    910      1     32     61       616.6           5000.           613.6    
    911      1     32     66       611.8           5000.           608.8    
    912      1     32     77       601.6           5000.           598.6    
    913      1     32     97       574.7           5000.           571.7    
    914      1     32     98       574.7           5000.           571.7    
    915      1     32     99       574.7           5000.           571.7    
    916      1     32    100       574.7           5000.           571.7    
    917      1     32    101       574.7           5000.           571.7    
    918      1     32    125       613.0           5000.           610.0    
    919      1     32    126       619.0           5000.           616.0    
    920      1     32    127       621.7           5000.           618.7    
    921      1     32    147       617.3           5000.           614.3    
    922      1     32    148       627.6           5000.           624.6    
    923      1     32    149       627.6           5000.           624.6    
    924      1     32    150       628.8           5000.           625.8    
    925      1     32    163       631.4           5000.           628.4    
    926      1     32    170       663.0           5000.           660.0    
    927      1     32    171       664.6           5000.           661.6    
    928      1     32    172       666.7           5000.           663.7    
    929      1     32    173       671.3           5000.           668.3    
    930      1     32    174       676.3           5000.           673.3    
    931      1     32    175       687.3           5000.           684.3    
    932      1     32    176       696.4           5000.           693.4    
    933      1     32    177       698.2           5000.           695.2    
    934      1     32    178       698.2           5000.           695.2    
    935      1     32    180       711.5           5000.           708.5    
    936      1     32    181       715.0           5000.           712.0    
    937      1     32    185       745.9           5000.           742.9    
    938      1     32    186       749.2           5000.           746.2    
    939      1     32    187       757.9           5000.           754.9    
    940      1     33      4       743.8           5000.           740.8    
    941      1     33     35       651.7           5000.           648.7    
    942      1     33     51       638.9           5000.           635.9    
    943      1     33     52       637.3           5000.           634.3    
    944      1     33     53       632.5           5000.           629.5    
    945      1     33     54       630.1           5000.           627.1    
    946      1     33     61       615.5           5000.           612.5    
    947      1     33     62       615.5           5000.           612.5    
[...]
        515.1       508.1       501.2       494.4       487.8       481.4       475.5       470.3       468.4       469.5    
        470.4       471.3       472.2       474.5       478.3       481.3       484.0       486.3       488.3       490.1    
        491.6       492.7       493.4       494.0       494.4       494.6    
 166    530.7       530.5       530.0       529.3       529.1       529.4       530.3       532.3       534.3       536.5    
        538.8       541.0       543.2       545.4       547.6       549.3       552.8       557.0       561.8       567.3    
        573.2       579.2       584.9       590.3       595.5       600.4       605.2       609.6       613.9       618.0    
        621.9       625.8       629.5       633.0       636.5       639.8       643.0       646.1       649.0       651.8    
        654.5       657.1       659.6       661.9       664.2       666.3       668.3       670.2       672.0       673.8    
        675.6       677.3       678.9       680.4       681.8       683.2       684.5       685.6       686.7       687.6    
        688.4       689.0       689.5       689.8       690.0       690.1       690.1       690.2       690.7       691.4    
        692.3       693.1       693.8       694.3       694.6       694.7       694.5       694.1       693.4       692.4    
        691.2       689.6       687.8       685.6       683.2       680.4       677.3       673.9       670.2       666.2    
        662.0       657.4       652.6       647.6       642.6       637.7       633.3       629.3       625.5       621.8    
        618.1       614.4       610.6       606.7       602.6       598.5       594.2       589.8       584.7       583.1    
        585.7       588.5       591.3       594.2       597.1       599.8       602.5       605.0       607.5       609.9    
        612.2       614.5       616.3       617.7       619.0       620.0       620.9       621.6       622.1       622.4    
        622.4       622.2       621.9       621.3       620.5       619.5       618.3       617.0       615.4       613.9    
        612.3       611.0       610.7       610.6       610.6       610.5       610.3       610.0       609.4       608.7    
        607.8       606.6       605.1       603.4       601.3       598.9       596.2       593.0       589.0       584.2    
        579.1       573.6       567.8       561.6       555.1       548.4       541.5       534.4       527.3       520.1    
        513.0       505.9       498.9       492.0       485.2       478.5       472.2       469.1       469.6       470.7    
        472.0       473.4       474.9       476.8       479.7       482.7       485.2       487.4       489.5       491.1    
        492.4       493.2       493.9       494.5       494.8       495.0    
 167    529.1       528.9       528.4       528.2       528.5       529.2       530.7       532.9       535.1       537.5    
        540.0       542.5       545.0       547.5       550.1       552.8       556.3       560.3       564.8       569.4    
        575.2       580.7       586.4       591.9       597.2       602.0       606.8       611.1       615.3       619.4    
        623.3       627.2       630.9       634.4       637.9       641.2       644.4       647.5       650.5       653.3    
        656.0       658.6       661.1       663.4       665.6       667.7       669.6       671.5       673.3       675.0    
        676.7       678.3       679.8       681.3       682.7       684.0       685.2       686.2       687.2       688.0    
        688.6       689.1       689.4       689.4       689.3       689.0       688.5       688.1       688.7       689.7    
        690.8       691.9       692.8       693.5       693.9       694.1       694.0       693.6       693.0       692.0    
        690.7       689.2       687.3       685.1       682.6       679.8       676.7       673.3       669.5       665.4    
        661.0       656.2       651.2       645.8       640.3       634.8       630.6       626.9       623.4       620.0    
        616.5       613.0       609.3       605.4       601.5       597.4       593.2       588.8       584.1       583.0    
        586.3       589.2       592.1       595.0       597.7       600.4       602.9       605.4       607.8       610.2    
        612.7       614.7       616.3       617.8       619.0       620.1       621.0       621.6       622.1       622.3    
        622.3       622.0       621.5       620.8       619.8       618.6       617.1       615.4       613.5       611.4    
        609.2       606.8       607.4       607.7       608.0       608.2       608.2       608.0       607.6       607.0    
        606.3       605.2       603.9       602.3       600.3       597.9       595.2       591.9       588.2       583.4    
        578.2       572.6       566.6       560.3       553.7       546.8       539.6       532.4       525.1       517.8    
        510.6       503.4       496.3       489.3       482.3       474.8       470.6       468.7       470.0       471.6    
        473.3       475.1       476.9       479.0       481.4       484.2       486.4       488.6       490.3       491.6    
        492.8       493.7       494.4       494.9       495.3       495.5    
 168    527.5       527.4       527.4       527.6       528.2       529.3       531.0       533.2       535.5       538.2    
        541.0       543.7       546.5       549.3       552.3       555.4       559.0       563.0       567.3       572.0    
        577.1       582.4       587.8       593.1       598.4       603.4       608.1       612.4       616.6       620.7    
        624.6       628.4       632.1       635.7       639.2       642.5       645.7       648.8       651.8       654.6    
        657.4       660.0       662.5       664.8       667.0       668.9       670.8       672.5       674.3       676.0    
        677.6       679.2       680.7       682.1       683.4       684.6       685.7       686.7       687.5       688.2    
        688.7       689.0       689.1       689.0       688.6       687.9       686.7       684.9       686.0       687.6    
        689.2       690.6       691.8       692.7       693.3       693.5       693.5       693.2       692.6       691.6    
        690.4       688.8       686.9       684.7       682.2       679.4       676.2       672.7       668.8       664.6    
        660.1       655.1       649.8       644.0       637.6       630.5       627.1       624.0       621.0       618.0    
        614.8       611.5       607.9       604.1       600.1       596.0       592.0       588.0       584.7       583.4    
        586.8       589.9       592.8       595.6       598.3       600.8       603.3       605.6       607.9       610.3    
        612.7       614.6       616.3       617.8       619.1       620.1       621.0       621.6       622.0       622.2    
        622.1       621.8       621.2       620.3       619.2       617.7       616.0       613.9       611.5       608.8    
        605.9       603.0       604.0       604.7       605.3       605.7       606.0       606.0       605.7       605.3    
        604.8       603.9       602.8       601.3       599.4       597.1       594.3       591.1       587.5       582.9    
        577.4       571.7       565.6       559.1       552.2       545.1       537.7       530.1       522.6       515.2    
        507.9       500.6       493.4       486.3       479.6       473.4       471.5       469.3       469.7       472.1    
        474.4       476.4       478.5       480.6       482.9       485.3       487.4       489.3       490.7       492.0    
        493.1       494.0       494.7       495.3       495.6       495.8    
 169    526.5       526.6       526.9       527.4       528.4       529.9       531.2       533.0       535.3       538.6    
        541.7       544.7       547.7       550.8       553.9       557.3       561.0       565.0       569.3       573.9    
        578.7       583.8       588.9       594.0       599.2       604.1       609.1       613.6       617.8       621.8    
        625.7       629.6       633.3       636.8       640.3       643.6       646.9       650.0       653.0       655.8    
        658.6       661.2       663.8       666.2       668.3       670.1       671.7       673.4       675.1       676.7    
        678.3       679.8       681.3       682.7       683.9       685.1       686.1       687.1       687.8       688.4    
        688.8       689.0       688.9       688.6       687.9       686.9       685.2       682.6       682.5       685.3    
        687.5       689.3       690.8       691.9       692.6       693.0       693.1       692.8       692.2       691.3    
        690.0       688.5       686.6       684.4       681.8       679.0       675.8       672.2       668.3       664.0    
        659.3       654.2       648.6       642.5       635.6       627.6       622.9       620.8       618.4       615.8    
        613.1       610.0       606.5       602.7       598.6       594.5       590.4       586.4       583.2       583.6    
        587.3       590.4       593.3       596.0       598.6       601.1       603.4       605.6       607.7       609.9    
        612.3       614.4       616.2       617.8       619.1       620.1       621.0       621.6       622.0       622.1    
        622.0       621.5       620.9       619.9       618.5       616.9       614.8       612.4       609.5       606.1    
        602.5       599.4       600.6       601.6       602.5       603.2       603.8       603.9       603.8       603.6    
        603.2       602.7       601.7       600.4       598.7       596.4       593.7       590.5       586.9       582.3    
        576.7       570.9       564.6       557.9       550.9       543.4       535.6       527.6       519.8       512.4    
        504.9       497.4       490.0       482.8       476.1       472.8       472.6       471.8       471.2       472.6    
        475.3       477.6       479.7       481.8       483.9       486.0       487.9       489.6       491.0       492.3    
        493.4       494.3       495.0       495.6       495.9       496.1    
 170    526.0       526.2       526.7       527.5       528.9       530.3       531.8       533.5       535.5       539.0    
        542.3       545.4       548.6       551.8       555.2       558.7       562.4       566.4       570.7       575.2    
        579.9       584.8       589.8       594.8       599.8       604.7       609.6       614.4       618.8       622.8    
        626.7       630.6       634.3       637.8       641.3       644.7       647.9       651.2       654.1       656.9    
        659.6       662.2       664.7       666.9       668.9       670.6       672.3       674.0       675.7       677.3    
        678.9       680.4       681.8       683.1       684.3       685.5       686.5       687.3       688.0       688.5    
        688.8       688.9       688.7       688.3       687.4       686.2       684.5       682.5       680.7       683.4    
        686.0       688.2       689.9       691.2       692.1       692.6       692.7       692.5       691.9       691.0    
        689.8       688.2       686.3       684.1       681.6       678.7       675.4       671.8       667.8       663.5    
        658.7       653.5       647.8       641.4       634.3       626.0       619.9       617.8       615.5       613.7    
        611.4       608.5       605.2       601.3       597.0       592.6       588.3       583.7       582.8       585.2    
        588.1       591.0       593.8       596.4       598.9       601.2       603.4       605.4       607.2       609.5    
        612.1       614.2       616.1       617.7       619.0       620.1       621.0       621.6       621.9       622.0    
        621.8       621.4       620.6       619.5       618.0       616.2       613.9       611.1       607.7       603.5    
        598.2       595.8       597.0       598.3       599.6       600.7       601.2       601.4       601.6       601.7    
        601.7       601.5       600.8       599.7       598.1       596.0       593.4       590.2       586.4       581.7    
        576.1       570.2       563.8       557.0       549.7       541.8       533.4       524.6       516.5       509.2    
        501.7       493.9       486.0       478.6       474.9       474.4       474.0       473.7       473.7       474.4    
        476.3       478.6       480.7       482.7       484.6       486.5       488.3       489.9       491.3       492.6    
        493.6       494.5       495.2       495.8       496.1       496.3    
 171    525.8       526.0       526.7       527.9       529.1       530.4       531.8       533.3       535.7       539.3    
        542.7       546.0       549.2       552.5       556.0       559.6       563.4       567.4       571.6       576.1    
        580.7       585.5       590.4       595.3       600.2       605.1       609.9       614.6       619.3       623.6    
        627.6       631.5       635.2       638.7       642.2       645.5       648.7       651.8       654.5       657.2    
        659.9       662.4       664.8       667.1       669.1       670.9       672.7       674.4       676.1       677.7    
        679.2       680.7       682.1       683.4       684.6       685.7       686.7       687.5       688.1       688.6    
        688.9       688.9       688.6       688.0       687.1       685.8       684.0       681.7       679.0       681.5    
        684.5       687.2       689.2       690.7       691.7       692.3       692.5       692.3       691.7       690.8    
        689.6       688.1       686.2       683.9       681.4       678.5       675.2       671.6       667.5       663.1    
        658.3       653.0       647.3       640.9       634.1       626.6       618.9       614.7       612.0       611.7    
        610.0       607.4       604.1       600.0       595.4       590.3       586.4       582.0       583.7       586.1    
        588.7       591.4       594.1       596.6       599.1       601.3       603.4       605.2       606.7       609.4    
        611.9       614.1       616.0       617.7       619.0       620.1       621.0       621.6       621.9       621.9    
        621.7       621.2       620.4       619.2       617.7       615.7       613.2       610.1       606.4       601.7    
        595.4       592.1       593.1       594.6       596.9       598.4       598.8       599.2       599.3       599.6    
        600.3       600.5       600.1       599.2       597.8       596.0       593.3       590.0       586.1       581.1    
        575.7       569.7       563.2       556.3       548.7       540.5       531.3       520.6       512.1       506.1    
        498.6       490.1       481.5       477.0       476.1       475.5       475.1       475.0       475.3       476.2    
        477.8       479.7       481.6       483.5       485.2       486.9       488.6       490.1       491.5       492.7    
        493.8       494.7       495.4       495.9       496.3       496.5    
 172    525.7       526.0       526.7       527.9       529.0       530.2       531.6       533.4       536.3       539.6    
        542.9       546.2       549.5       552.9       556.4       560.0       563.8       567.8       572.1       576.5    
        581.1       585.8       590.7       595.5       600.4       605.3       610.1       614.8       619.3       623.7    
        628.0       631.7       635.3       638.9       642.3       645.6       648.8       651.8       654.6       657.4    
        660.0       662.5       664.9       667.1       669.2       671.1       672.9       674.6       676.3       677.9    
        679.4       680.9       682.3       683.6       684.7       685.8       686.8       687.6       688.2       688.6    
        688.9       688.8       688.5       687.9       686.9       685.5       683.6       681.1       677.7       678.6    
        683.3       686.5       688.8       690.4       691.5       692.1       692.3       692.2       691.6       690.7    
        689.5       688.0       686.1       683.8       681.3       678.3       675.1       671.4       667.4       663.0    
        658.1       652.8       647.0       640.8       634.1       627.2       620.6       615.6       611.1       610.8    
        609.3       606.8       603.4       599.2       593.8       586.7       584.8       581.2       583.9       586.4    
        589.0       591.6       594.2       596.8       599.1       601.4       603.4       605.1       606.4       609.3    
        611.9       614.1       616.0       617.6       619.0       620.1       621.0       621.5       621.9       621.9    
        621.7       621.1       620.3       619.1       617.5       615.4       612.9       609.7       605.8       601.1    
        595.6       589.9       588.4       589.9       594.6       596.9       597.4       597.3       596.6       596.8    
        599.1       599.9       599.7       599.0       597.7       595.9       593.1       589.7       585.8       580.9    
        575.4       569.4       562.9       555.9       548.3       539.9       530.6       520.4       509.7       504.2    
        496.4       486.1       479.7       477.9       476.8       476.1       475.7       475.7       476.1       477.0    
        478.5       480.5       482.3       484.1       485.6       487.2       488.7       490.2       491.6       492.8    
        493.9       494.7       495.5       496.0       496.3       496.5    

 HEAD WILL BE SAVED ON UNIT   51 AT END OF TIME STEP    1, STRESS PERIOD    1
1
  VOLUMETRIC BUDGET FOR ENTIRE MODEL AT END OF TIME STEP    1, STRESS PERIOD   1
  ------------------------------------------------------------------------------

     CUMULATIVE VOLUMES      L**3       RATES FOR THIS TIME STEP      L**3/T
     ------------------                 ------------------------

           IN:                                      IN:
           ---                                      ---
             STORAGE =           0.0000               STORAGE =           0.0000
       CONSTANT HEAD =           0.0000         CONSTANT HEAD =           0.0000
               WELLS =           0.0000                 WELLS =           0.0000
       RIVER LEAKAGE =    20517162.0000         RIVER LEAKAGE =    20517162.0000
            RECHARGE =   210700000.0000              RECHARGE =   210700000.0000

            TOTAL IN =   231217168.0000              TOTAL IN =   231217168.0000

          OUT:                                     OUT:
          ----                                     ----
             STORAGE =           0.0000               STORAGE =           0.0000
       CONSTANT HEAD =           0.0000         CONSTANT HEAD =           0.0000
               WELLS =      133000.0000                 WELLS =      133000.0000
       RIVER LEAKAGE =   231084160.0000         RIVER LEAKAGE =   231084160.0000
            RECHARGE =           0.0000              RECHARGE =           0.0000

           TOTAL OUT =   231217152.0000             TOTAL OUT =   231217152.0000

            IN - OUT =          16.0000              IN - OUT =          16.0000

 PERCENT DISCREPANCY =           0.00     PERCENT DISCREPANCY =           0.00






         TIME SUMMARY AT END OF TIME STEP    1 IN STRESS PERIOD    1
                    SECONDS     MINUTES      HOURS       DAYS        YEARS
                    -----------------------------------------------------------
   TIME STEP LENGTH  86400.      1440.0      24.000      1.0000     2.73785E-03
 STRESS PERIOD TIME  86400.      1440.0      24.000      1.0000     2.73785E-03
         TOTAL TIME  86400.      1440.0      24.000      1.0000     2.73785E-03
1

 Run end date and time (yyyy/mm/dd hh:mm:ss): 2020/03/30 22:44:56
 Elapsed run time:  0.244 Seconds

